/*--------------------------------*- C++ -*----------------------------------*\
| =========                 |                                                 |
| \\      /  F ield         | OpenFOAM: The Open Source CFD Toolbox           |
|  \\    /   O peration     | Version:  dev                                   |
|   \\  /    A nd           | Web:      www.OpenFOAM.org                      |
|    \\/     M anipulation  |                                                 |
\*---------------------------------------------------------------------------*/
FoamFile
{
    version     2.0;
    format      ascii;
    class       volVectorField;
    object      U.air;
}
// * * * * * * * * * * * * * * * * * * * * * * * * * * * * * * * * * * * * * //

dimensions      [0 1 -1 0 0 0 0];

internalField   uniform (0 0 0.29237);

boundaryField
{
    inlet
    {
        type               interstitialInletVelocity;
        inletVelocity      uniform (0 0 0.29237);
        alpha              alpha.air;
        value              $internalField;
    }
    
    biomass_inlet
    {
        type               interstitialInletVelocity;
        inletVelocity      uniform (0.00522 0 0);
        alpha              alpha.air;
        value              uniform (0.00522 0 0);//$internalField;
    }

    outlet
    {
        type                pressureInletOutletVelocity;
        phi                 phi.air;
        value               $internalField;
    }

    walls
    {
        type                noSlip;
    }

    defaultFaces
    {
        type                empty;
    }
}

// ************************************************************************* //
